 360
Frame: 1, Step: 1,  i =       30, E =     -2260.5534742032
C           1.334586      -0.289081       0.057502
C           0.634720       0.822827      -0.477032
C           0.625988      -1.373217       0.587068
C           2.826952      -0.254771       0.073316
H           1.197566       1.694629      -0.832108
H           1.170987      -2.236414       1.009045
H           4.455233      -1.086473       0.711839
O           3.443338      -1.178762       0.827021
O           3.466161       0.567932      -0.599213
C          -1.463503      -0.310022      -0.019333
C          -0.752827      -1.395491       0.535624
C          -0.746736       0.821247      -0.535715
C          -2.952010      -0.308999      -0.035826
H          -1.328019      -2.197948       0.971095
H          -1.274401       1.594344      -1.046362
H          -4.517384       0.673926      -0.590657
O          -3.487461       0.720666      -0.700090
O          -3.620836      -1.156075       0.566124
C           0.230207       0.279464       3.520120
C          -0.502681       1.323576       2.928509
C          -0.454235      -0.818985       4.094960
C           1.713926       0.281460       3.503318
H           0.051596       2.134419       2.405310
H           0.097076      -1.665093       4.504084
H           3.255702      -0.688485       4.187633
O           2.267477      -0.712522       4.266790
O           2.392462       1.154341       2.915808
C          -2.566434       0.190780       3.525834
C          -1.828536      -0.841053       4.095686
C          -1.882052       1.302222       2.929638
C          -4.031870       0.108581       3.498004
H          -2.374436      -1.692045       4.509385
H          -2.389546       2.078507       2.397171
H          -5.611203       1.086479       2.933874
O          -4.621845       1.140140       2.858340
O          -4.715261      -0.765566       4.079816
C          -0.807910       0.752112       6.963329
C          -1.533363       1.849064       6.457664
C          -1.503881      -0.378597       7.456357
C           0.685266       0.751490       6.937881
H          -1.030932       2.715700       6.061586
H          -0.932705      -1.185551       7.877337
H           2.267877      -0.272168       7.444988
O           1.246990      -0.258903       7.576543
O           1.317375       1.639775       6.304434
C          -3.619639       0.637646       6.897303
C          -2.895195      -0.437237       7.451118
C          -2.921409       1.786305       6.377878
C          -5.077317       0.601133       6.925121
H          -3.447850      -1.271677       7.836923
H          -3.468671       2.619344       5.954697
H          -6.699288       1.546694       6.369215
O          -5.694128       1.597099       6.261684
O          -5.730221      -0.243379       7.589140
C          -1.702324       1.093308      10.454239
C          -2.390600       2.162330       9.883222
C          -2.391089       0.005141      11.017673
C          -0.197619       1.121720      10.476974
H          -1.865761       3.011210       9.450573
H          -1.817358      -0.813777      11.399506
H           1.467927       0.252285      11.053969
O           0.435470       0.142491      11.149815
O           0.449089       2.014633       9.866853
C          -4.518787       1.053147      10.441042
C          -3.788596      -0.004818      11.027858
C          -3.803293       2.133041       9.846783
C          -5.995740       1.048607      10.475883
H          -4.342721      -0.843092      11.421389
H          -4.377616       2.969138       9.473804
H          -7.608457       1.981865       9.943066
O          -6.578842       2.052181       9.837035
O          -6.669594       0.154604      11.042139
C          -2.588470       1.658041      13.934293
C          -3.283369       2.770683      13.389775
C          -3.307982       0.603046      14.469603
C          -1.106836       1.624855      13.939586
H          -2.697050       3.578146      12.979467
H          -2.808597      -0.264379      14.923446
H           0.445310       0.676500      14.576948
O          -0.563440       0.624315      14.585147
O          -0.399009       2.494622      13.320356
C          -5.391253       1.630647      13.820775
C          -4.711285       0.591644      14.397532
C          -4.658788       2.741687      13.325044
C          -6.884568       1.621438      13.861033
H          -5.252148      -0.254805      14.838437
H          -5.219170       3.595403      12.960312
H          -8.477457       2.644328      13.275634
O          -7.482876       2.636646      13.207378
O          -7.567885       0.727056      14.388308
C          -4.586301       4.784646       0.091695
C          -5.263474       5.869147      -0.548787
C          -5.298983       3.736426       0.645280
C          -3.121605       4.773208       0.061460
H          -4.689527       6.704076      -0.936660
H          -4.797360       2.921249       1.153717
H          -1.579634       3.757829       0.562981
O          -2.563789       3.737917       0.705744
O          -2.388324       5.622935      -0.491626
C          -7.378569       4.766654      -0.098793
C          -6.695268       3.715206       0.551958
C          -6.653050       5.828196      -0.657254
C          -8.874184       4.689204      -0.128650
H          -7.273801       2.911295       0.996640
H          -7.209180       6.609286      -1.162947
H         -10.469039       5.551243      -0.749840
O          -9.461991       5.623682      -0.889143
O          -9.534216       3.813930       0.489223
C          -5.662358       5.083337       3.565832
C          -6.344120       6.199302       2.971947
C          -6.393908       3.978057       4.068668
C          -4.179322       5.137762       3.568788
H          -5.738070       7.061242       2.690090
H          -5.912201       3.091969       4.497525
H          -2.531216       4.263098       4.220860
O          -3.552732       4.229089       4.312768
O          -3.556464       6.017812       2.917375
C          -8.451788       5.136760       3.449474
C          -7.800427       4.043955       4.011982
C          -7.731202       6.218100       2.905099
C          -9.942871       5.129097       3.448069
H          -8.421262       3.251588       4.387727
H          -8.263206       7.097869       2.589762
H         -11.554175       6.042747       2.820728
O         -10.531396       6.096895       2.746015
O         -10.585261       4.285938       4.113274
C          -6.660954       5.554640       7.038438
C          -7.329542       6.639075       6.463615
C          -7.413481       4.477379       7.578629
C          -5.164830       5.580569       7.090284
H          -6.719755       7.451353       6.095003
H          -6.884087       3.685432       8.086761
H          -3.624474       4.616791       7.813761
O          -4.601650       4.725008       7.974267
O          -4.545654       6.421947       6.401813
C          -9.468510       5.576458       6.924783
C          -8.799396       4.514404       7.521622
C          -8.708433       6.655726       6.396863
C         -10.939768       5.601122       6.956888
H          -9.298762       3.692846       8.008006
H          -9.254862       7.506852       5.995832
H         -12.515718       6.611490       6.433002
O         -11.503450       6.693554       6.370836
O         -11.608031       4.704629       7.483044
C          -7.528861       6.132070      10.444946
C          -8.258571       7.159205       9.813981
C          -8.245174       5.071362      11.046358
C          -6.053795       6.157444      10.484591
H          -7.725060       7.948703       9.298870
H          -7.694860       4.286644      11.566417
H          -4.483874       5.210213      11.156288
O          -5.520277       5.230254      11.255418
O          -5.405072       7.033312       9.899929
C         -10.346404       6.037603      10.353744
C          -9.638775       5.031574      11.021209
C          -9.649038       7.077677       9.748531
C         -11.833572       6.042156      10.341524
H         -10.190186       4.212077      11.483600
H         -10.152510       7.830377       9.192268
H         -13.419314       6.974401       9.649159
O         -12.395317       6.936988       9.527158
O         -12.454457       5.278148      11.080119
C          -8.449372       6.616903      13.922608
C          -9.179932       7.643395      13.268815
C          -9.172698       5.573075      14.524293
C          -6.988031       6.612736      13.933416
H          -8.635560       8.410604      12.805252
H          -8.643673       4.750027      15.005375
H          -5.404006       5.744662      14.593450
O          -6.434290       5.708968      14.711159
O          -6.282815       7.426484      13.241682
C         -11.276566       6.560863      13.841127
C         -10.563820       5.516557      14.478997
C         -10.567952       7.615546      13.238681
C         -12.724669       6.512594      13.801125
H         -11.073997       4.724520      14.973947
H         -11.062342       8.460060      12.789303
H         -14.323354       7.376314      13.116954
O         -13.295224       7.426095      13.026301
O         -13.374451       5.681962      14.506323
C          10.926557      -0.165909       0.033023
C          10.227012       0.934120      -0.561016
C          10.225871      -1.209213       0.664951
C          12.416439      -0.148689       0.035084
H          10.755165       1.782201      -0.963109
H          10.776622      -2.032267       1.120939
H          14.001242      -1.061276       0.701046
O          12.978930      -1.142220       0.723132
O          13.109284       0.728001      -0.549351
C           8.146688      -0.200541       0.017615
C           8.825804      -1.215050       0.662472
C           8.835268       0.890690      -0.536984
C           6.686408      -0.267040      -0.035646
H           8.276578      -2.054641       1.145292
H           8.267390       1.671252      -1.027678
H           5.072791       0.590480      -0.666784
O           6.090994       0.702891      -0.731234
O           6.030392      -1.130065       0.586930
C           9.797489       0.291963       3.640969
C           9.133908       1.374769       3.012175
C           9.097505      -0.821107       4.175823
C          11.309497       0.260744       3.630641
H           9.668177       2.171834       2.579592
H           9.624095      -1.709575       4.576430
H          12.896778      -0.585008       4.324357
O          11.896198      -0.555462       4.504513
O          11.961324       0.997507       2.868296
C           7.041723       0.279075       3.486805
C           7.706199      -0.800980       4.087116
C           7.754479       1.372134       2.938136
C           5.564190       0.322056       3.514787
H           7.144461      -1.642673       4.472543
H           7.202736       2.217320       2.565343
H           3.982871       1.247031       2.876110
O           5.008520       1.322918       2.819773
O           4.914904      -0.597884       4.069088
C           8.815750       0.691091       6.972414
C           8.144947       1.782435       6.379779
C           8.102833      -0.390617       7.513272
C          10.291673       0.723529       6.986941
H           8.677036       2.627755       5.996258
H           8.646459      -1.195422       7.984319
H          11.891203      -0.197950       7.674397
O          10.870457      -0.253491       7.732818
O          10.959823       1.617186       6.417032
C           6.038675       0.721932       6.896953
C           6.713433      -0.405391       7.444514
C           6.741225       1.809521       6.350188
C           4.561202       0.658028       6.832899
H           6.122925      -1.199913       7.894136
H           6.200721       2.656747       5.972233
H           2.954592       1.542421       6.240716
O           3.961785       1.672699       6.202665
O           3.930305      -0.317770       7.311608
C           7.923988       1.156847      10.430838
C           7.249717       2.188359       9.776358
C           7.196865       0.090643      11.022564
C           9.405065       1.138596      10.431137
H           7.759374       2.995806       9.280298
H           7.741495      -0.742000      11.454283
H          11.010531       0.207630      11.047211
O           9.995860       0.101667      11.086211
O          10.070143       2.015285       9.815602
C           5.121385       1.078455      10.282139
C           5.814333       0.064117      10.967467
C           5.823615       2.152916       9.718134
C           3.624849       1.074199      10.303408
H           5.300261      -0.789036      11.420364
H           5.343654       2.977189       9.195280
H           2.025178       2.040377       9.722097
O           3.049362       2.069653       9.630443
O           2.965760       0.185078      10.918659
C           7.068406       1.704794      13.901661
C           6.363052       2.732118      13.291083
C           6.352074       0.619529      14.468615
C           8.554106       1.738268      13.880719
H           6.868241       3.613385      12.904536
H           6.867455      -0.223606      14.911895
H          10.189481       0.746843      14.388281
O           9.156942       0.753303      14.499100
O           9.129803       2.623271      13.225121
C           4.235809       1.611949      13.831515
C           4.967543       0.585266      14.469009
C           4.965610       2.672781      13.246262
C           2.768200       1.606169      13.789302
H           4.464859      -0.198115      14.982579
H           4.421765       3.453963      12.741156
H           1.135311       2.475337      13.113230
O           2.178286       2.507601      12.963072
O           2.096502       0.786667      14.463938
C           5.019731       4.703579      -0.061148
C           4.359889       5.790902      -0.592048
C           4.301111       3.634751       0.540103
C           6.517001       4.731554      -0.012590
H           4.876757       6.590392      -1.099654
H           4.827358       2.793242       0.938011
H           8.079472       3.854996       0.751995
O           7.068591       3.920809       0.887433
O           7.171769       5.498467      -0.740544
C           2.249066       4.732054      -0.014492
C           2.908428       3.614149       0.513601
C           2.992261       5.804207      -0.552690
C           0.764852       4.702059      -0.064589
H           2.367643       2.813570       0.958489
H           2.438619       6.703966      -0.904896
H          -0.888483       5.594065      -0.534963
O           0.136541       5.696928      -0.690313
O           0.146603       3.792305       0.504981
C           3.971622       5.206656       3.521916
C           3.266350       6.275664       2.950628
C           3.261436       4.116123       4.013326
C           5.456007       5.191299       3.463934
H           3.808399       7.146576       2.561311
H           3.765068       3.286886       4.474624
H           7.050934       4.170029       4.047166
O           6.034430       4.167728       4.143262
O           6.159111       5.989894       2.805293
C           1.176052       5.192258       3.441230
C           1.873122       4.096365       4.018177
C           1.887527       6.274708       2.906386
C          -0.285481       5.178080       3.456442
H           1.335674       3.287345       4.465997
H           1.357325       7.157247       2.564673
H          -1.912439       6.114761       2.975542
O          -0.903985       6.211720       2.863956
O          -0.943101       4.280681       4.059401
C           2.916342       5.620557       6.842822
C           2.199919       6.736458       6.275357
C           2.208785       4.596395       7.511579
C           4.393169       5.600330       6.808615
H           2.783912       7.512861       5.790648
H           2.780850       3.767220       7.963260
H           6.006001       4.733463       7.586690
O           4.979054       4.703346       7.624740
O           5.071007       6.408780       6.128071
C           0.107979       5.606015       6.966806
C           0.825290       4.581661       7.608349
C           0.810080       6.689055       6.353399
C          -1.352866       5.582232       7.031753
H           0.272731       3.835552       8.204029
H           0.203228       7.513453       5.980488
H          -2.934135       6.554657       6.444085
O          -1.919972       6.600763       6.353305
O          -2.005470       4.678972       7.648573
C           2.112631       6.059735      10.456202
C           1.399070       7.124647       9.882980
C           1.415769       4.959221      10.939700
C           3.578300       6.165648      10.463667
H           1.884771       7.973040       9.435947
H           1.976676       4.129220      11.344773
H           5.209321       5.407483      11.228370
O           4.198286       5.296676      11.303396
O           4.174665       6.982288       9.707440
C          -0.705991       6.036981      10.377954
C           0.014321       4.926524      10.880862
C           0.019119       7.118737       9.872581
C          -2.183786       6.014681      10.426658
H          -0.511010       4.084070      11.320668
H          -0.490572       7.976357       9.514339
H          -3.760135       7.048983       9.929010
O          -2.760307       7.034616       9.783653
O          -2.843206       5.101422      10.980904
C           1.203934       6.499113      13.787893
C           0.534100       7.588899      13.262450
C           0.472714       5.434671      14.343971
C           2.685273       6.516732      13.765957
H           1.064636       8.368086      12.746523
H           1.030740       4.539520      14.662210
H           4.249193       5.581617      14.530976
O           3.233593       5.560342      14.526848
O           3.361197       7.387061      13.179577
C          -1.614456       6.588099      13.854384
C          -0.919195       5.461817      14.342742
C          -0.848062       7.637289      13.303800
C          -3.103145       6.569967      13.851574
H          -1.429043       4.615258      14.779733
H          -1.383673       8.503160      12.860901
H          -4.710227       7.393049      13.164452
O          -3.695216       7.499483      13.080861
O          -3.762273       5.721312      14.498904